agentigrid/rag/tools/specs/cases/case_ACTIVSg200_load0.9_v0.95-1.05.m
function mpc = case_ACTIVSg200
%CASE_ACTIVSG200  Synthetic Illinois 200-bus power system model.
%
%   This is an entirely synthetic 200 bus case, geographically situated
%   in the central part of the US state of Illinois. The case is
%   designed with a 230 and 115 kV transmission network to serve
%   a load that roughly mimics the actual population of its geographic
%   footprint. The synthetic transmission system was designed by
%   algorithms described in [1] to be statistically similar to actual
%   transmission system models but without modeling any actual lines.
%
%   When publishing results based on this data, please cite:
%
%   [1] A.B. Birchfield, T. Xu, K.M. Gegner, K.S. Shetye, T.J. Overbye,
%       "Grid Structural Characteristics as Validation Criteria for
%       Synthetic Networks," IEEE Transactions on Power Systems,
%       vol. 32, no. 4, pp. 3258-3265, July 2017.
%       DOI: 10.1109/TPWRS.2016.2616385
%
%   This is a synthetic power system model that does not represent the
%   actual grid. It was developed as part of the US ARPA-E GRID DATA
%   research project and contains no CEII.
%
%   One-line diagrams and other data formats available at:
%       https://electricgrids.engr.tamu.edu
%
%   May 16, 2017

%   Created from ACTIV_SG_200.pwb, saved by
%   PowerWorld Simulator, version 20 Beta, build date May 19, 2017,
%   then by MATPOWER 6.

%   MATPOWER
%   Copyright (c) 2017 by A.B. Birchfield, T. Xu, K.M. Gegner, K.S. Shetye,
%   and T.J. Overbye
%   Licensed under the Creative Commons Attribution 4.0 International license,
%   http://creativecommons.org/licenses/by/4.0/

%% MATPOWER Case Format : Version 2

%% MATPOWER Case Format : Version 2
mpc.version = '2';

%%-----  Power Flow Data  -----%%
%% system MVA base
mpc.baseMVA = 100;


%% bus data
%	bus_i	type	Pd	Qd	Gs	Bs	area	Vm	Va	baseKV	zone	Vmax	Vmin	lam_P	lam_Q	mu_Vmax	mu_Vmin
mpc.bus = [
	1	1	0	0	0	0	1	1.0191524	-7.085196	115	2	1.05	0.95	6.8700	0.0000	0.0000	0.0000;
	2	1	6.651	1.89	0	0	1	1.0190346	-7.098018	115	2	1.05	0.95	6.8700	0.0000	0.0000	0.0000;
	3	1	0	0	0	0	1	1.0300537	-10.029102	115	4	1.05	0.95	6.8700	0.0000	0.0000	0.0000;
	4	1	1.53	0.432	0	0	1	1.0300287	-10.031977	115	4	1.05	0.95	6.8700	0.0000	0.0000	0.0000;
	5	1	0	0	0	0	1	1.0372733	-3.546274	115	6	1.05	0.95	6.8700	0.0000	0.0000	0.0000;
	6	1	7.155	2.034	0	0	1	1.0371472	-3.559563	115	6	1.05	0.95	6.8700	0.0000	0.0000	0.0000;
	7	1	0	0	0	0	1	1.0130981	-7.793195	115	2	1.05	0.95	6.8700	0.0000	0.0000	0.0000;
	8	1	21.366	6.093	0	0	1	1.0127362	-7.833073	115	2	1.05	0.95	6.8700	0.0000	0.0000	0.0000;
	9	1	0	0	0	0	1	1.0157742	-7.471766	115	2	1.05	0.95	6.8700	0.0000	0.0000	0.0000;
	10	1	38.412	10.944	0	0	1	1.0150515	-7.561889	115	2	1.05	0.95	6.8700	0.0000	0.0000	0.0000;
	11	1	0	0	0	0	1	1.0464424	-7.604683	115	4	1.05	0.95	6.8700	0.0000	0.0000	0.0000;
	12	1	0.27	0.081	0	0	1	1.046438	-7.60522	115	4	1.05	0.95	6.8700	0.0000	0.0000	0.0000;
	13	1	2.268	0.648	0	0	1	1.0464027	-7.609214	115	4	1.05	0.95	6.8700	0.0000	0.0000	0.0000;
	14	1	0	0	0	0	1	1.044617	-6.245575	230	4	1.05	0.95	6.8700	0.0000	0.0000	0.0000;
	15	1	0	0	0	30	1	1.0491072	-7.105388	115	4	1.05	0.95	6.8700	0.0000	0.0000	0.0000;
	16	1	40.284	11.484	0	0	1	1.048481	-7.176325	115	4	1.05	0.95	6.8700	0.0000	0.0000	0.0000;
	17	1	0	0	0	0	1	1.0247944	-8.305174	115	4	1.05	0.95	6.8700	0.0000	0.0000	0.0000;
	18	1	0.639	0.18	0	0	1	1.0247831	-8.306647	115	4	1.05	0.95	6.8700	0.0000	0.0000	0.0000;
	19	1	0.693	0.198	0	0	1	1.0247839	-8.306404	115	4	1.05	0.95	6.8700	0.0000	0.0000	0.0000;
	20	1	1.017	0.288	0	0	1	1.024777	-8.307127	115	4	1.05	0.95	6.8700	0.0000	0.0000	0.0000;
	21	1	4.149	1.179	0	0	1	1.024716	-8.31463	115	4	1.05	0.95	6.8700	0.0000	0.0000	0.0000;
	22	1	0	0	0	0	1	1.0446532	-8.021549	115	4	1.05	0.95	6.8700	0.0000	0.0000	0.0000;
	23	1	1.269	0.36	0	0	1	1.0446325	-8.023805	115	4	1.05	0.95	6.8700	0.0000	0.0000	0.0000;
	24	1	2.16	0.612	0	0	1	1.0446174	-8.025162	115	4	1.05	0.95	6.8700	0.0000	0.0000	0.0000;
	25	1	0	0	0	0	1	1.0425139	-4.003351	115	6	1.05	0.95	6.8700	0.0000	0.0000	0.0000;
	26	1	1.215	0.351	0	0	1	1.0424947	-4.005417	115	6	1.05	0.95	6.8700	0.0000	0.0000	0.0000;
	27	1	0	0	0	0	1	1.0457273	-7.975065	115	4	1.05	0.95	6.8700	0.0000	0.0000	0.0000;
	28	1	2.097	0.603	0	0	1	1.045689	-7.979706	115	4	1.05	0.95	6.8700	0.0000	0.0000	0.0000;
	29	1	0	0	0	0	1	1.0181686	-7.054086	115	2	1.05	0.95	6.8700	0.0000	0.0000	0.0000;
	30	1	53.181	15.156	0	0	1	1.0172458	-7.149969	115	2	1.05	0.95	6.8700	0.0000	0.0000	0.0000;
	31	1	0	0	0	0	1	1.0215416	-5.832082	115	7	1.05	0.95	6.8700	0.0000	0.0000	0.0000;
	32	1	0.459	0.135	0	0	1	1.0215327	-5.833121	115	7	1.05	0.95	6.8700	0.0000	0.0000	0.0000;
	33	1	5.796	1.656	0	0	1	1.0214429	-5.844415	115	7	1.05	0.95	6.8700	0.0000	0.0000	0.0000;
	34	1	0	0	0	0	1	1.0327185	-9.326455	115	4	1.05	0.95	6.8700	0.0000	0.0000	0.0000;
	35	1	18.684	5.328	0	0	1	1.032392	-9.365615	115	4	1.05	0.95	6.8700	0.0000	0.0000	0.0000;
	36	1	0	0	0	0	1	1.0280697	-6.178381	115	7	1.05	0.95	6.8700	0.0000	0.0000	0.0000;
	37	1	3.213	0.918	0	0	1	1.0280176	-6.18452	115	7	1.05	0.95	6.8700	0.0000	0.0000	0.0000;
	38	1	26.829	7.65	0	0	1	1.0275847	-6.23205	115	7	1.05	0.95	6.8700	0.0000	0.0000	0.0000;
	39	1	6.669	1.899	0	0	1	1.024585	-10.493094	115	4	1.05	0.95	6.8700	0.0000	0.0000	0.0000;
	40	1	1.836	0.522	0	0	1	1.0245573	-10.496396	115	4	1.05	0.95	6.8700	0.0000	0.0000	0.0000;
	41	1	34.506	9.837	0	0	1	1.0462799	-7.96017	115	5	1.05	0.95	6.8700	0.0000	0.0000	0.0000;
	42	1	9.558	2.727	0	0	1	1.0301465	-11.069993	115	4	1.05	0.95	6.8700	0.0000	0.0000	0.0000;
	43	1	1.881	0.531	0	0	1	1.017201	-6.400585	115	2	1.05	0.95	6.8700	0.0000	0.0000	0.0000;
	44	1	3.735	1.062	0	0	1	1.0280137	-10.39886	115	4	1.05	0.95	6.8700	0.0000	0.0000	0.0000;
	45	1	0	0	0	0	1	1.0384367	-2.068677	230	7	1.05	0.95	6.8700	0.0000	0.0000	0.0000;
	46	1	5.706	1.629	0	0	1	1.0378124	-2.889424	115	7	1.05	0.95	6.8700	0.0000	0.0000	0.0000;
	47	1	1.386	0.396	0	0	1	1.0392618	-8.19532	115	4	1.05	0.95	6.8700	0.0000	0.0000	0.0000;
	48	1	1.638	0.468	0	0	1	1.0351468	-4.17501	115	6	1.05	0.95	6.8700	0.0000	0.0000	0.0000;
	49	2	0	0	0	0	1	1.04	-3.80269	13.8	6	1.05	0.95	6.8700	0.0000	0.0000	0.0000;
	50	2	0	0	0	0	1	1.04	-3.896095	13.8	6	1.05	0.95	6.8700	0.0000	0.0000	0.0000;
	51	2	0	0	0	0	1	1.04	-3.742621	13.8	6	1.05	0.95	6.8700	0.0000	0.0000	0.0000;
	52	2	0	0	0	0	1	1.04	-3.914588	13.8	6	1.05	0.95	6.8700	0.0000	0.0000	0.0000;
	53	2	0	0	0	0	1	1.04	-3.349326	13.8	6	1.05	0.95	6.8700	0.0000	0.0000	0.0000;
	54	1	2.394	0.684	0	0	1	1.0375005	-8.493516	115	4	1.05	0.95	6.8700	0.0000	0.0000	0.0000;
	55	1	0	0	0	0	1	1.0370718	-2.298751	230	7	1.05	0.95	6.8700	0.0000	0.0000	0.0000;
	56	1	1.179	0.333	0	0	1	1.0364415	-2.736582	115	7	1.05	0.95	6.8700	0.0000	0.0000	0.0000;
	57	1	2.538	0.72	0	0	1	1.0281336	-10.449132	115	4	1.05	0.95	6.8700	0.0000	0.0000	0.0000;
	58	1	3.807	1.089	0	0	1	1.0349414	-6.030088	115	7	1.05	0.95	6.8700	0.0000	0.0000	0.0000;
	59	1	4.257	1.215	0	0	1	1.0187885	-7.693149	115	2	1.05	0.95	6.8700	0.0000	0.0000	0.0000;
	60	1	3.42	0.972	0	0	1	1.0291097	-6.554687	115	2	1.05	0.95	6.8700	0.0000	0.0000	0.0000;
	61	1	18.495	5.274	0	0	1	1.0351527	-3.102719	115	7	1.05	0.95	6.8700	0.0000	0.0000	0.0000;
	62	1	19.269	5.49	0	0	1	1.0267194	-11.318015	115	4	1.05	0.95	6.8700	0.0000	0.0000	0.0000;
	63	1	7.182	2.043	0	0	1	1.0437777	-8.233032	115	4	1.05	0.95	6.8700	0.0000	0.0000	0.0000;
	64	1	0	0	0	0	1	1.0415417	-2.532761	115	6	1.05	0.95	6.8700	0.0000	0.0000	0.0000;
	65	2	0	0	0	0	1	1.04	2.119	13.8	6	1.05	0.95	6.8700	0.0000	0.0000	0.0000;
	66	1	0	0	0	0	1	1.0410702	-7.846441	115	4	1.05	0.95	6.8700	0.0000	0.0000	0.0000;
	67	2	0	0	0	0	1	1.0405589	-7.73215	13.8	4	1.05	0.95	6.8700	0.0000	0.0000	0.0000;
	68	2	0	0	0	0	1	1.04	-6.669196	13.8	4	1.05	0.95	6.8700	0.0000	0.0000	0.0000;
	69	2	0	0	0	0	1	1.04	-7.421629	13.8	4	1.05	0.95	6.8700	0.0000	0.0000	0.0000;
	70	2	0	0	0	0	1	1.04	-6.959081	13.8	4	1.05	0.95	6.8700	0.0000	0.0000	0.0000;
	71	2	0	0	0	0	1	1.04	-7.48165	13.8	4	1.05	0.95	6.8700	0.0000	0.0000	0.0000;
	72	2	0	0	0	0	1	1.04	-7.512144	13.8	4	1.05	0.95	6.8700	0.0000	0.0000	0.0000;
	73	2	0	0	0	0	1	1.04	-7.193069	13.8	4	1.05	0.95	6.8700	0.0000	0.0000	0.0000;
	74	1	16.884	4.815	0	0	1	1.0294816	-5.12964	115	6	1.05	0.95	6.8700	0.0000	0.0000	0.0000;
	75	1	3.24	0.927	0	0	1	1.028977	-6.116296	115	2	1.05	0.95	6.8700	0.0000	0.0000	0.0000;
	76	2	0	0	0	0	1	1.04	-5.641354	13.8	2	1.05	0.95	6.8700	0.0000	0.0000	0.0000;
	77	2	0	0	0	0	1	1.04	-5.292751	13.8	2	1.05	0.95	6.8700	0.0000	0.0000	0.0000;
	78	2	0	0	0	0	1	1.028977	-6.116296	13.8	2	1.05	0.95	6.8700	0.0000	0.0000	0.0000;
	79	2	0	0	0	0	1	1.028977	-6.116296	13.8	2	1.05	0.95	6.8700	0.0000	0.0000	0.0000;
	80	1	1.332	0.378	0	0	1	1.0475622	-7.25821	115	5	1.05	0.95	6.8700	0.0000	0.0000	0.0000;
	81	1	0	0	0	0	1	1.038152	-3.896426	230	6	1.05	0.95	6.8700	0.0000	0.0000	0.0000;
	82	1	6.84	1.953	0	0	1	1.0353106	-4.72467	115	6	1.05	0.95	6.8700	0.0000	0.0000	0.0000;
	83	1	2.826	0.801	0	0	1	1.0305903	-5.147124	115	7	1.05	0.95	6.8700	0.0000	0.0000	0.0000;
	84	1	3.375	0.963	0	0	1	1.0192369	-5.836735	115	2	1.05	0.95	6.8700	0.0000	0.0000	0.0000;
	85	1	4.347	1.242	0	0	1	1.0241032	-9.891841	115	4	1.05	0.95	6.8700	0.0000	0.0000	0.0000;
	86	1	7.425	2.115	0	0	1	1.0142895	-7.633369	115	2	1.05	0.95	6.8700	0.0000	0.0000	0.0000;
	87	1	0	0	0	0	1	1.0382378	-9.281203	230	3	1.05	0.95	6.8700	0.0000	0.0000	0.0000;
	88	1	44.406	12.654	0	0	1	1.0367741	-10.475486	115	3	1.05	0.95	6.8700	0.0000	0.0000	0.0000;
	89	1	56.565	16.119	0	0	1	1.0367956	-6.001781	115	7	1.05	0.95	6.8700	0.0000	0.0000	0.0000;
	90	2	0	0	0	0	1	1.04	-4.84285	13.8	7	1.05	0.95	6.8700	0.0000	0.0000	0.0000;
	91	2	0	0	0	0	1	1.04	-5.608287	13.8	7	1.05	0.95	6.8700	0.0000	0.0000	0.0000;
	92	2	0	0	0	0	1	1.0367956	-6.001781	13.8	7	1.05	0.95	6.8700	0.0000	0.0000	0.0000;
	93	1	2.754	0.783	0	0	1	1.0467635	-7.705981	115	4	1.05	0.95	6.8700	0.0000	0.0000	0.0000;
	94	2	0	0	0	0	1	1.0412845	-6.897097	13.8	4	1.05	0.95	6.8700	0.0000	0.0000	0.0000;
	95	1	2.7	0.765	0	30	1	1.0452705	-6.143695	115	7	1.05	0.95	6.8700	0.0000	0.0000	0.0000;
	96	1	2.664	0.756	0	0	1	1.0399843	-4.622369	115	7	1.05	0.95	6.8700	0.0000	0.0000	0.0000;
	97	1	6.597	1.881	0	0	1	1.0266279	-8.070874	115	2	1.05	0.95	6.8700	0.0000	0.0000	0.0000;
	98	1	0	0	0	0	1	1.0259732	-5.693301	230	2	1.05	0.95	6.8700	0.0000	0.0000	0.0000;
	99	1	10.953	3.123	0	0	1	1.021759	-6.532648	115	2	1.05	0.95	6.8700	0.0000	0.0000	0.0000;
	100	1	33.651	9.594	0	80	1	1.05559	-7.845164	115	5	1.05	0.95	6.8700	0.0000	0.0000	0.0000;
	101	1	0.468	0.135	0	0	1	1.0153419	-7.486883	115	2	1.05	0.95	6.8700	0.0000	0.0000	0.0000;
	102	1	0	0	0	0	1	1.0375884	-1.855349	230	7	1.05	0.95	6.8700	0.0000	0.0000	0.0000;
	103	1	0	0	0	0	1	1.0361908	-2.820525	115	7	1.05	0.95	6.8700	0.0000	0.0000	0.0000;
	104	2	0	0	0	0	1	1.04	1.292356	13.8	7	1.05	0.95	6.8700	0.0000	0.0000	0.0000;
	105	2	0	0	0	0	1	1.04	3.030149	13.8	7	1.05	0.95	6.8700	0.0000	0.0000	0.0000;
	106	1	1.854	0.531	0	0	1	1.0333053	-3.587524	115	7	1.05	0.95	6.8700	0.0000	0.0000	0.0000;
	107	1	47.304	13.482	0	0	1	1.0164253	-5.897801	115	7	1.05	0.95	6.8700	0.0000	0.0000	0.0000;
	108	1	8.478	2.412	0	0	1	1.02631	-6.590908	115	2	1.05	0.95	6.8700	0.0000	0.0000	0.0000;
	109	1	4.644	1.323	0	0	1	1.0266885	-7.119037	115	4	1.05	0.95	6.8700	0.0000	0.0000	0.0000;
	110	1	9.774	2.781	0	0	1	1.0153998	-7.494693	115	2	1.05	0.95	6.8700	0.0000	0.0000	0.0000;
	111	1	7.938	2.259	0	0	1	1.0422996	-8.069078	115	5	1.05	0.95	6.8700	0.0000	0.0000	0.0000;
	112	1	0	0	0	0	1	1.0338868	-2.38601	230	7	1.05	0.95	6.8700	0.0000	0.0000	0.0000;
	113	1	0	0	0	0	1	1.0214787	-5.246294	115	7	1.05	0.95	6.8700	0.0000	0.0000	0.0000;
	114	2	0	0	0	0	1	1.0362036	-2.072597	13.8	7	1.05	0.95	6.8700	0.0000	0.0000	0.0000;
	115	2	0	0	0	0	1	1.04	2.075284	13.8	7	1.05	0.95	6.8700	0.0000	0.0000	0.0000;
	116	1	0	0	0	0	1	1.0260581	-5.40757	230	2	1.05	0.95	6.8700	0.0000	0.0000	0.0000;
	117	1	30.672	8.739	0	0	1	1.0194057	-6.761358	115	2	1.05	0.95	6.8700	0.0000	0.0000	0.0000;
	118	1	3.546	1.008	0	0	1	1.0220863	-6.761277	115	2	1.05	0.95	6.8700	0.0000	0.0000	0.0000;
	119	1	15.795	4.5	0	0	1	1.0162966	-7.890283	115	2	1.05	0.95	6.8700	0.0000	0.0000	0.0000;
	120	1	1.62	0.459	0	0	1	1.0244523	-9.26074	115	4	1.05	0.95	6.8700	0.0000	0.0000	0.0000;
	121	1	0	0	0	0	1	1.0413751	-2.550667	230	7	1.05	0.95	6.8700	0.0000	0.0000	0.0000;
	122	1	13.896	3.96	0	0	1	1.0392113	-3.476706	115	7	1.05	0.95	6.8700	0.0000	0.0000	0.0000;
	123	1	0	0	0	0	1	1.0317706	-4.799729	230	2	1.05	0.95	6.8700	0.0000	0.0000	0.0000;
	124	1	0	0	0	0	1	1.0241995	-6.311793	115	2	1.05	0.95	6.8700	0.0000	0.0000	0.0000;
	125	2	0	0	0	0	1	1.04	-2.638002	13.8	2	1.05	0.95	6.8700	0.0000	0.0000	0.0000;
	126	2	0	0	0	0	1	1.04	-3.433514	13.8	2	1.05	0.95	6.8700	0.0000	0.0000	0.0000;
	127	2	0	0	0	0	1	1.04	-4.153305	13.8	2	1.05	0.95	6.8700	0.0000	0.0000	0.0000;
	128	1	0	0	0	0	1	1.0336624	-2.641873	230	7	1.05	0.95	6.8700	0.0000	0.0000	0.0000;
	129	1	69.516	19.809	0	0	1	1.0199071	-5.280933	115	7	1.05	0.95	6.8700	0.0000	0.0000	0.0000;
	130	1	3.96	1.125	0	0	1	1.0308537	-4.215383	115	7	1.05	0.95	6.8700	0.0000	0.0000	0.0000;
	131	1	27.225	7.758	0	0	1	1.0159516	-7.483658	115	2	1.05	0.95	6.8700	0.0000	0.0000	0.0000;
	132	1	24.264	6.912	0	0	1	1.0142019	-7.143976	115	2	1.05	0.95	6.8700	0.0000	0.0000	0.0000;
	133	1	0	0	0	0	1	1.033428	-4.376173	230	2	1.05	0.95	6.8700	0.0000	0.0000	0.0000;
	134	1	0	0	0	0	1	1.0315652	-5.231244	115	2	1.05	0.95	6.8700	0.0000	0.0000	0.0000;
	135	2	0	0	0	0	1	1.04	-1.987898	13.8	2	1.05	0.95	6.8700	0.0000	0.0000	0.0000;
	136	2	0	0	0	0	1	1.04	-2.419807	13.8	2	1.05	0.95	6.8700	0.0000	0.0000	0.0000;
	137	1	1.044	0.297	0	0	1	1.0313258	-9.719095	115	4	1.05	0.95	6.8700	0.0000	0.0000	0.0000;
	138	1	1.881	0.54	0	0	1	1.0307923	-5.699318	115	6	1.05	0.95	6.8700	0.0000	0.0000	0.0000;
	139	1	6.156	1.755	0	0	1	1.0214166	-7.361468	115	2	1.05	0.95	6.8700	0.0000	0.0000	0.0000;
	140	1	7.389	2.106	0	0	1	1.0231103	-6.390899	115	2	1.05	0.95	6.8700	0.0000	0.0000	0.0000;
	141	1	1.278	0.369	0	0	1	1.0153587	-7.521902	115	2	1.05	0.95	6.8700	0.0000	0.0000	0.0000;
	142	1	33.534	9.558	0	0	1	1.0140717	-7.617783	115	2	1.05	0.95	6.8700	0.0000	0.0000	0.0000;
	143	1	24.102	6.867	0	0	1	1.0372589	-6.549447	115	5	1.05	0.95	6.8700	0.0000	0.0000	0.0000;
	144	1	8.145	2.322	0	0	1	1.0236389	-5.928282	115	2	1.05	0.95	6.8700	0.0000	0.0000	0.0000;
	145	1	15.786	4.5	0	0	1	1.0320168	-11.164121	115	3	1.05	0.95	6.8700	0.0000	0.0000	0.0000;
	146	1	0	0	0	0	1	1.0331184	-4.010275	115	7	1.05	0.95	6.8700	0.0000	0.0000	0.0000;
	147	2	0	0	0	0	1	1.04	1.000906	13.8	7	1.05	0.95	6.8700	0.0000	0.0000	0.0000;
	148	1	28.818	8.217	0	0	1	1.0102299	-8.189318	115	2	1.05	0.95	6.8700	0.0000	0.0000	0.0000;
	149	1	0	0	0	0	1	1.0395559	-8.879345	230	3	1.05	0.95	6.8700	0.0000	0.0000	0.0000;
	150	1	0	0	0	0	1	1.039664	-9.999925	115	3	1.05	0.95	6.8700	0.0000	0.0000	0.0000;
	151	2	0	0	0	0	1	1.04	-8.34258	13.8	3	1.05	0.95	6.8700	0.0000	0.0000	0.0000;
	152	2	0	0	0	0	1	1.04	-7.139644	13.8	3	1.05	0.95	6.8700	0.0000	0.0000	0.0000;
	153	2	0	0	0	0	1	1.04	-6.612046	13.8	3	1.05	0.95	6.8700	0.0000	0.0000	0.0000;
	154	2	0	0	0	0	1	1.04	-7.61542	13.8	3	1.05	0.95	6.8700	0.0000	0.0000	0.0000;
	155	2	0	0	0	0	1	1.04	-7.653539	13.8	3	1.05	0.95	6.8700	0.0000	0.0000	0.0000;
	156	1	0	0	0	0	1	1.0321033	-4.724707	230	2	1.05	0.95	6.8700	0.0000	0.0000	0.0000;
	157	1	13.284	3.789	0	0	1	1.0305206	-5.439245	115	2	1.05	0.95	6.8700	0.0000	0.0000	0.0000;
	158	1	8.073	2.304	0	0	1	1.0434577	-7.900145	115	4	1.05	0.95	6.8700	0.0000	0.0000	0.0000;
	159	1	1.251	0.36	0	0	1	1.0265896	-10.742416	115	4	1.05	0.95	6.8700	0.0000	0.0000	0.0000;
	160	1	0	0	0	0	1	1.0311472	-11.239582	115	4	1.05	0.95	6.8700	0.0000	0.0000	0.0000;
	161	2	0	0	0	0	1	1.0311472	-11.239582	13.8	4	1.05	0.95	6.8700	0.0000	0.0000	0.0000;
	162	1	1.305	0.369	0	0	1	1.0225791	-6.221058	115	2	1.05	0.95	6.8700	0.0000	0.0000	0.0000;
	163	1	41.22	11.745	0	0	1	1.0431643	-7.926244	115	5	1.05	0.95	6.8700	0.0000	0.0000	0.0000;
	164	2	0	0	0	0	1	1.0431643	-7.926244	13.8	5	1.05	0.95	6.8700	0.0000	0.0000	0.0000;
	165	2	0	0	0	0	1	1.0431643	-7.926244	13.8	5	1.05	0.95	6.8700	0.0000	0.0000	0.0000;
	166	2	0	0	0	0	1	1.0431643	-7.926244	13.8	5	1.05	0.95	6.8700	0.0000	0.0000	0.0000;
	167	2	0	0	0	0	1	1.0414716	-7.628263	13.8	5	1.05	0.95	6.8700	0.0000	0.0000	0.0000;
	168	2	0	0	0	0	1	1.0431643	-7.926244	13.8	5	1.05	0.95	6.8700	0.0000	0.0000	0.0000;
	169	2	0	0	0	0	1	1.0431643	-7.926244	13.8	5	1.05	0.95	6.8700	0.0000	0.0000	0.0000;
	170	2	0	0	0	0	1	1.04	-7.359358	13.8	5	1.05	0.95	6.8700	0.0000	0.0000	0.0000;
	171	1	7.146	2.034	0	0	1	1.0293606	-5.544471	115	6	1.05	0.95	6.8700	0.0000	0.0000	0.0000;
	172	1	4.842	1.377	0	0	1	1.0446624	-6.737828	115	5	1.05	0.95	6.8700	0.0000	0.0000	0.0000;
	173	1	7.839	2.232	0	0	1	1.0438694	-7.824896	115	5	1.05	0.95	6.8700	0.0000	0.0000	0.0000;
	174	1	2.493	0.711	0	0	1	1.048556	-6.975714	115	5	1.05	0.95	6.8700	0.0000	0.0000	0.0000;
	175	1	6.579	1.872	0	0	1	1.042508	-8.051141	115	5	1.05	0.95	6.8700	0.0000	0.0000	0.0000;
	176	1	17.109	4.878	0	0	1	1.034057	-10.848998	115	3	1.05	0.95	6.8700	0.0000	0.0000	0.0000;
	177	1	10.161	2.898	0	0	1	1.0279083	-5.445402	115	7	1.05	0.95	6.8700	0.0000	0.0000	0.0000;
	178	1	0	0	0	0	1	1.0414926	-4.889523	230	5	1.05	0.95	6.8700	0.0000	0.0000	0.0000;
	179	1	21.249	6.057	0	0	1	1.0462277	-6.907941	115	5	1.05	0.95	6.8700	0.0000	0.0000	0.0000;
	180	1	6.966	1.989	0	0	1	1.045211	-7.124937	115	5	1.05	0.95	6.8700	0.0000	0.0000	0.0000;
	181	1	43.182	12.303	0	0	1	1.0333892	-11.195233	115	4	1.05	0.95	6.8700	0.0000	0.0000	0.0000;
	182	2	0	0	0	0	1	1.04	-10.37446	13.8	4	1.05	0.95	6.8700	0.0000	0.0000	0.0000;
	183	2	0	0	0	0	1	1.04	-10.723282	13.8	4	1.05	0.95	6.8700	0.0000	0.0000	0.0000;
	184	1	9.621	2.745	0	0	1	1.0492205	-8.289414	115	5	1.05	0.95	6.8700	0.0000	0.0000	0.0000;
	185	1	9.711	2.763	0	0	1	1.0341291	-10.871111	115	3	1.05	0.95	6.8700	0.0000	0.0000	0.0000;
	186	1	1.89	0.54	0	0	1	1.0294683	-5.915141	115	2	1.05	0.95	6.8700	0.0000	0.0000	0.0000;
	187	1	0	0	0	0	1	1.0411088	-1.59351	230	7	1.05	0.95	6.8700	0.0000	0.0000	0.0000;
	188	1	0	0	0	0	1	1.0422271	-4.274235	115	7	1.05	0.95	6.8700	0.0000	0.0000	0.0000;
	189	3	0	0	0	0	1	1.04	0	13.8	7	1.05	0.95	6.8700	0.0000	0.0000	0.0000;
	190	1	15.111	4.302	0	0	1	1.0275107	-5.607695	115	6	1.05	0.95	6.8700	0.0000	0.0000	0.0000;
	191	1	6.507	1.854	0	0	1	1.0460774	-7.762654	115	5	1.05	0.95	6.8700	0.0000	0.0000	0.0000;
	192	1	47.466	13.527	0	0	1	1.0166276	-5.99268	115	7	1.05	0.95	6.8700	0.0000	0.0000	0.0000;
	193	1	19.791	5.643	0	0	1	1.0164747	-7.379588	115	2	1.05	0.95	6.8700	0.0000	0.0000	0.0000;
	194	1	33.813	9.639	0	50	1	1.0400826	-10.703489	115	3	1.05	0.95	6.8700	0.0000	0.0000	0.0000;
	195	1	0	0	0	0	1	1.0332601	-5.127426	115	6	1.05	0.95	6.8700	0.0000	0.0000	0.0000;
	196	2	0	0	0	0	1	1.0332601	-5.127426	13.8	6	1.05	0.95	6.8700	0.0000	0.0000	0.0000;
	197	2	0	0	0	0	1	1.0332601	-5.127426	13.8	6	1.05	0.95	6.8700	0.0000	0.0000	0.0000;
	198	1	4.833	1.377	0	0	1	1.0232234	-6.849765	115	2	1.05	0.95	6.8700	0.0000	0.0000	0.0000;
	199	1	3.834	1.089	0	0	1	1.0438791	-5.721465	115	6	1.05	0.95	6.8700	0.0000	0.0000	0.0000;
	200	1	8.406	2.394	0	0	1	1.0259148	-9.367606	115	4	1.05	0.95	6.8700	0.0000	0.0000	0.0000;
];


%% generator data
%	bus	Pg	Qg	Qmax	Qmin	Vg	mBase	status	Pmax	Pmin	Pc1	Pc2	Qc1min	Qc1max	Qc2min	Qc2max	ramp_agc	ramp_10	ramp_30	ramp_q	apf	mu_Pmax	mu_Pmin	mu_Qmax	mu_Qmin
mpc.gen = [
	49	1.36	0.88	2.11	-0.55	1.04	5.44	1	4.53	1.36	0	0	0	0	0	0	0	0	0	0	0	0	0	0	0;
	50	1.36	1.18	2.11	-0.55	1.04	5.44	1	4.53	1.36	0	0	0	0	0	0	0	0	0	0	0	0	0	0	0;
	51	1.36	0.77	2.11	-0.55	1.04	5.44	1	4.53	1.36	0	0	0	0	0	0	0	0	0	0	0	0	0	0	0;
	52	1.36	1.25	2.11	-0.55	1.04	5.44	1	4.53	1.36	0	0	0	0	0	0	0	0	0	0	0	0	0	0	0;
	53	2.72	0.79	4.23	-1.11	1.04	10.88	1	9.07	2.72	0	0	0	0	0	0	0	0	0	0	0	0	0	0	0;
	65	86.5	0.84	32.04	-21.66	1.04	180.48	1	86.5	86.5	0	0	0	0	0	0	0	0	0	0	0	0	0	0	0;
	67	1.41	-0.57	2.19	-0.57	1.04	5.64	1	4.7	1.41	0	0	0	0	0	0	0	0	0	0	0	0	0	0	0;
	68	8.38	-0.55	13.01	-3.41	1.04	33.5	1	27.92	8.38	0	0	0	0	0	0	0	0	0	0	0	0	0	0	0;
	69	8.38	-1.53	13.01	-3.41	1.04	33.5	1	27.92	8.38	0	0	0	0	0	0	0	0	0	0	0	0	0	0	0;
	70	8.38	-0.78	13.01	-3.41	1.04	33.5	1	27.92	8.38	0	0	0	0	0	0	0	0	0	0	0	0	0	0	0;
	71	8.38	-1.7	13.01	-3.41	1.04	33.5	1	27.92	8.38	0	0	0	0	0	0	0	0	0	0	0	0	0	0	0;
	72	8.38	-1.86	13.01	-3.41	1.04	33.5	1	27.92	8.38	0	0	0	0	0	0	0	0	0	0	0	0	0	0	0;
	73	8.38	-1.11	13.01	-3.41	1.04	33.5	1	27.92	8.38	0	0	0	0	0	0	0	0	0	0	0	0	0	0	0;
	76	1.2	1.41	2.04	-0.44	1.04	4.8	1	4	1.2	0	0	0	0	0	0	0	0	0	0	0	0	0	0	0;
	77	0.72	0.5	1.22	-0.27	1.04	2.88	1	2.4	0.72	0	0	0	0	0	0	0	0	0	0	0	0	0	0	0;
	78	0	0	9.16	-2	1.04	21.6	0	18	5.4	0	0	0	0	0	0	0	0	0	0	0	0	0	0	0;
	79	0	0	9.16	-2	1.04	21.6	0	18	5.4	0	0	0	0	0	0	0	0	0	0	0	0	0	0	0;
	90	0.96	0.13	1.63	-0.36	1.04	3.84	1	3.2	0.96	0	0	0	0	0	0	0	0	0	0	0	0	0	0	0;
	91	1.5	0.59	2.55	-0.55	1.04	6	1	5	1.5	0	0	0	0	0	0	0	0	0	0	0	0	0	0	0;
	92	0	0	3.21	-0.7	1.04	7.56	0	6.3	1.89	0	0	0	0	0	0	0	0	0	0	0	0	0	0	0;
	94	5.4	-2.2	8.39	-2.2	1.04	21.6	1	18	5.4	0	0	0	0	0	0	0	0	0	0	0	0	0	0	0;
	104	67.6	3.1	21.09	-14.26	1.04	118.8	1	67.6	67.6	0	0	0	0	0	0	0	0	0	0	0	0	0	0	0;
	105	154.8	8.29	42.17	-28.51	1.04	237.6	1	154.8	154.8	0	0	0	0	0	0	0	0	0	0	0	0	0	0	0;
	114	1.4	0.36	0.36	-0.24	1.04	2.04	1	1.4	1.4	0	0	0	0	0	0	0	0	0	0	0	0	0	0	0;
	115	133.5	12.6	31.95	-21.6	1.04	180	1	133.5	133.5	0	0	0	0	0	0	0	0	0	0	0	0	0	0	0;
	125	39.02	7.24	60.6	-15.87	1.04	156.06	1	130.05	39.02	0	0	0	0	0	0	0	0	0	0	0	0	0	0	0;
	126	39.02	12.55	60.6	-15.87	1.04	156.06	1	130.05	39.02	0	0	0	0	0	0	0	0	0	0	0	0	0	0	0;
	127	39.02	25.99	60.6	-15.87	1.04	156.06	1	130.05	39.02	0	0	0	0	0	0	0	0	0	0	0	0	0	0	0;
	135	133.92	21.46	208.02	-54.46	1.04	535.68	1	446.4	133.92	0	0	0	0	0	0	0	0	0	0	0	0	0	0	0;
	136	133.92	25.06	208.02	-54.46	1.04	535.68	1	446.4	133.92	0	0	0	0	0	0	0	0	0	0	0	0	0	0	0;
	147	92.4	8.79	21.41	-14.47	1.04	120.6	1	92.4	92.4	0	0	0	0	0	0	0	0	0	0	0	0	0	0	0;
	151	1.62	0.02	2.52	-0.66	1.04	6.48	1	5.4	1.62	0	0	0	0	0	0	0	0	0	0	0	0	0	0	0;
	152	23.17	0.27	35.99	-9.42	1.04	92.67	1	77.22	23.17	0	0	0	0	0	0	0	0	0	0	0	0	0	0	0;
	153	23.17	0.02	35.99	-9.42	1.04	92.67	1	77.22	23.17	0	0	0	0	0	0	0	0	0	0	0	0	0	0	0;
	154	23.17	0.14	35.99	-9.42	1.04	92.67	1	77.22	23.17	0	0	0	0	0	0	0	0	0	0	0	0	0	0	0;
	155	23.17	0.13	35.99	-9.42	1.04	92.67	1	77.22	23.17	0	0	0	0	0	0	0	0	0	0	0	0	0	0	0;
	161	0	0	70.55	-15.38	1.04	166.32	0	138.6	41.58	0	0	0	0	0	0	0	0	0	0	0	0	0	0	0;
	164	0	0	6.11	-1.33	1.04	14.4	0	12	3.6	0	0	0	0	0	0	0	0	0	0	0	0	0	0	0;
	165	0	0	13.23	-2.89	1.04	31.2	0	26	7.8	0	0	0	0	0	0	0	0	0	0	0	0	0	0	0;
	166	0	0	4.78	-1.04	1.04	11.28	0	9.4	2.82	0	0	0	0	0	0	0	0	0	0	0	0	0	0	0;
	167	2.82	-1.04	4.78	-1.04	1.04	11.28	1	9.4	2.82	0	0	0	0	0	0	0	0	0	0	0	0	0	0	0;
	168	0	0	4.78	-1.04	1.04	11.28	0	9.4	2.82	0	0	0	0	0	0	0	0	0	0	0	0	0	0	0;
	169	0	0	4.78	-1.04	1.04	11.28	0	9.4	2.82	0	0	0	0	0	0	0	0	0	0	0	0	0	0	0;
	170	2.82	-0.99	4.78	-1.04	1.04	11.28	1	9.4	2.82	0	0	0	0	0	0	0	0	0	0	0	0	0	0	0;
	182	5.25	2.15	8.16	-2.14	1.04	21	1	17.5	5.25	0	0	0	0	0	0	0	0	0	0	0	0	0	0	0;
	183	7.98	5.73	12.4	-3.25	1.04	31.92	1	26.6	7.98	0	0	0	0	0	0	0	0	0	0	0	0	0	0	0;
	189	384.37	-24.15	209.45	-46.67	1.04	682.98	1	569.15	170.75	0	0	0	0	0	0	0	0	0	0	0	0	0	0	0;
	196	0	0	34.36	-7.49	1.04	81	0	67.5	20.25	0	0	0	0	0	0	0	0	0	0	0	0	0	0	0;
	197	0	0	34.36	-7.49	1.04	81	0	67.5	20.25	0	0	0	0	0	0	0	0	0	0	0	0	0	0	0;
];


%% branch data
%	fbus	tbus	r	x	b	rateA	rateB	rateC	ratio	angle	status	angmin	angmax	Pf	Qf	Pt	Qt	mu_Sf	mu_St	mu_angmin	mu_angmax
mpc.branch = [
	2	1	0.000673	0.003339	0	100	0	0	0	0	1	0	0	-7.39	-2.1	7.39	2.11	0	0	0	0;
	1	119	0.018542	0.119758	0.02285	221.1	0	0	0	0	1	0	0	12.25	-0.57	-12.22	-1.63	0	0	0	0;
	124	1	0.005615	0.036268	0.00692	221.1	0	0	0	0	1	0	0	40.13	7.94	-40.04	-8.08	0	0	0	0;
	193	1	0.004258	0.027501	0.00525	221.1	0	0	0	0	1	0	0	-20.39	-6.96	20.41	6.54	0	0	0	0;
	4	3	0.000573	0.003303	0	100	0	0	0	0	1	0	0	-1.7	-0.48	1.7	0.48	0	0	0	0;
	57	3	0.008505	0.058098	0.00988	221.1	0	0	0	0	1	0	0	-13.56	-1.89	13.58	0.94	0	0	0	0;
	3	137	0.005889	0.038035	0.00726	221.1	0	0	0	0	1	0	0	-15.27	-1.42	15.29	0.74	0	0	0	0;
	6	5	0.000694	0.003337	0	100	0	0	0	0	1	0	0	-7.95	-2.26	7.95	2.27	0	0	0	0;
	48	5	0.006246	0.043513	0.00711	221.1	0	0	0	0	1	0	0	-27.22	-1.38	27.27	0.92	0	0	0	0;
	5	64	0.007877	0.054875	0.00897	221.1	0	0	0	0	1	0	0	-35.21	-3.19	35.3	2.86	0	0	0	0;
	8	7	0.000634	0.003189	0	100	0	0	0	0	1	0	0	-23.74	-6.77	23.74	6.78	0	0	0	0;
	7	86	0.003756	0.024259	0.00463	221.1	0	0	0	0	1	0	0	-12.29	-3.29	12.29	2.86	0	0	0	0;
	7	101	0.003597	0.023232	0.00443	221.1	0	0	0	0	1	0	0	-24.59	-6.14	24.61	5.83	0	0	0	0;
	7	148	0.008667	0.05598	0.01068	221.1	0	0	0	0	1	0	0	13.14	2.65	-13.12	-3.65	0	0	0	0;
	10	9	0.000585	0.003967	0	100	0	0	0	0	1	0	0	-42.68	-12.16	42.69	12.24	0	0	0	0;
	9	124	0.008069	0.055123	0.00938	221.1	0	0	0	0	1	0	0	-39.58	-9.83	39.7	9.74	0	0	0	0;
	131	9	0.004139	0.026732	0.0051	221.1	0	0	0	0	1	0	0	-0.68	0.52	0.68	-1.04	0	0	0	0;
	9	141	0.004446	0.03097	0.00506	221.1	0	0	0	0	1	0	0	3.05	0.67	-3.05	-1.18	0	0	0	0;
	9	193	0.003695	0.025244	0.00429	221.1	0	0	0	0	1	0	0	-6.85	-2.03	6.85	1.6	0	0	0	0;
	12	11	0.000534	0.003533	0	100	0	0	0	0	1	0	0	-0.3	-0.09	0.3	0.09	0	0	0	0;
	13	11	0.000619	0.003606	0	100	0	0	0	0	1	0	0	-2.52	-0.72	2.52	0.72	0	0	0	0;
	11	15	0.010408	0.06722	0.01282	221.1	0	0	0	0	1	0	0	-14.52	-2.54	14.54	1.26	0	0	0	0;
	11	93	0.018394	0.128141	0.02095	221.1	0	0	0	0	1	0	0	1.44	-1.62	-1.44	-0.68	0	0	0	0;
	158	11	0.008519	0.058199	0.0099	221.1	0	0	0	0	1	0	0	-10.24	-4.37	10.24	3.35	0	0	0	0;
	15	14	0.000637	0.027526	0	300	0	0	1	0	1	0	0	-59.31	18.94	59.33	-17.97	0	0	0	0;
	14	121	0.007013	0.050098	0.09134	402.36	0	0	0	0	1	0	0	-135.7	25.28	136.94	-26.35	0	0	0	0;
	14	149	0.009133	0.065244	0.11895	402.36	0	0	0	0	1	0	0	76.37	-7.32	-75.88	-2.11	0	0	0	0;
	16	15	0.000553	0.0032	0	100	0	0	0	0	1	0	0	-44.76	-12.76	44.77	12.82	0	0	0	0;
	18	17	0.000503	0.003926	0	100	0	0	0	0	1	0	0	-0.71	-0.2	0.71	0.2	0	0	0	0;
	19	17	0.000514	0.003079	0	100	0	0	0	0	1	0	0	-0.77	-0.22	0.77	0.22	0	0	0	0;
	20	17	0.000623	0.003339	0	100	0	0	0	0	1	0	0	-1.13	-0.32	1.13	0.32	0	0	0	0;
	21	17	0.00062	0.00394	0	100	0	0	0	0	1	0	0	-4.61	-1.31	4.61	1.31	0	0	0	0;
	109	17	0.009789	0.068198	0.01115	221.1	0	0	0	0	1	0	0	31.74	-1.96	-31.65	1.44	0	0	0	0;
	17	120	0.010316	0.070473	0.01199	221.1	0	0	0	0	1	0	0	24.42	-3.5	-24.36	2.65	0	0	0	0;
	23	22	0.000616	0.003222	0	100	0	0	0	0	1	0	0	-1.41	-0.4	1.41	0.4	0	0	0	0;
	24	22	0.000687	0.003067	0	100	0	0	0	0	1	0	0	-2.4	-0.68	2.4	0.68	0	0	0	0;
	22	27	0.011379	0.073494	0.01402	221.1	0	0	0	0	1	0	0	-1.41	-2.07	1.41	0.54	0	0	0	0;
	158	22	0.012701	0.086769	0.01476	221.1	0	0	0	0	1	0	0	2.4	-2.59	-2.4	0.99	0	0	0	0;
	26	25	0.00061	0.003071	0	100	0	0	0	0	1	0	0	-1.35	-0.39	1.35	0.39	0	0	0	0;
	25	64	0.007643	0.053244	0.0087	221.1	0	0	0	0	1	0	0	-50.92	9.41	51.11	-9.04	0	0	0	0;
	199	25	0.009909	0.064003	0.01221	221.1	0	0	0	0	1	0	0	-49.33	9.96	49.57	-9.8	0	0	0	0;
	28	27	0.000587	0.003964	0	100	0	0	0	0	1	0	0	-2.33	-0.67	2.33	0.67	0	0	0	0;
	27	93	0.025172	0.175362	0.02867	221.1	0	0	0	0	1	0	0	-2.96	-1.75	2.96	-1.37	0	0	0	0;
	27	158	0.020429	0.131945	0.02517	221.1	0	0	0	0	1	0	0	-0.78	0.54	0.78	-3.29	0	0	0	0;
	30	29	0.000694	0.003131	0	100	0	0	0	0	1	0	0	-59.09	-16.84	59.11	16.95	0	0	0	0;
	124	29	0.005561	0.038742	0.00633	221.1	0	0	0	0	1	0	0	36.44	10.61	-36.36	-10.73	0	0	0	0;
	29	140	0.007895	0.055004	0.00899	221.1	0	0	0	0	1	0	0	-22.75	-6.22	22.79	5.58	0	0	0	0;
	32	31	0.000667	0.003884	0	100	0	0	0	0	1	0	0	-0.51	-0.15	0.51	0.15	0	0	0	0;
	33	31	0.000528	0.003639	0	100	0	0	0	0	1	0	0	-6.44	-1.84	6.44	1.84	0	0	0	0;
	177	31	0.008406	0.05856	0.00957	221.1	0	0	0	0	1	0	0	13.43	8.78	-13.41	-9.64	0	0	0	0;
	192	31	0.008088	0.05525	0.0094	221.1	0	0	0	0	1	0	0	-6.45	-8.58	6.46	7.66	0	0	0	0;
	35	34	0.000575	0.003674	0	100	0	0	0	0	1	0	0	-20.76	-5.92	20.76	5.93	0	0	0	0;
	34	54	0.006268	0.042819	0.00729	221.1	0	0	0	0	1	0	0	-37.23	-6.21	37.31	6	0	0	0	0;
	34	137	0.006911	0.044639	0.00852	221.1	0	0	0	0	1	0	0	16.46	0.27	-16.45	-1.07	0	0	0	0;
	37	36	0.000552	0.003328	0	100	0	0	0	0	1	0	0	-3.57	-1.02	3.57	1.02	0	0	0	0;
	38	36	0.00067	0.003511	0	100	0	0	0	0	1	0	0	-29.81	-8.5	29.81	8.53	0	0	0	0;
	58	36	0.010889	0.07439	0.01266	221.1	0	0	0	0	1	0	0	4.99	8.16	-4.98	-9.43	0	0	0	0;
	83	36	0.009615	0.066986	0.01095	221.1	0	0	0	0	1	0	0	28.47	-0.53	-28.4	-0.11	0	0	0	0;
	40	39	0.000505	0.003103	0	100	0	0	0	0	1	0	0	-2.04	-0.58	2.04	0.58	0	0	0	0;
	39	85	0.008702	0.060625	0.00991	221.1	0	0	0	0	1	0	0	-17.67	2.93	17.69	-3.78	0	0	0	0;
	159	39	0.007332	0.05108	0.00835	221.1	0	0	0	0	1	0	0	-8.21	4.79	8.22	-5.62	0	0	0	0;
	41	100	0.004595	0.029676	0.00566	221.1	0	0	0	0	1	0	0	-12.26	-31.23	12.3	30.9	0	0	0	0;
	41	163	0.003165	0.021623	0.00368	221.1	0	0	0	0	1	0	0	-0.77	14.99	0.77	-15.34	0	0	0	0;
	41	180	0.009408	0.060766	0.01159	221.1	0	0	0	0	1	0	0	-25.31	5.32	25.37	-6.21	0	0	0	0;
	44	42	0.012256	0.085383	0.01396	221.1	0	0	0	0	1	0	0	13.89	-5.21	-13.86	3.91	0	0	0	0;
	181	42	0.008008	0.05579	0.00912	221.1	0	0	0	0	1	0	0	-3.24	5.99	3.25	-6.93	0	0	0	0;
	43	84	0.007509	0.051295	0.00873	221.1	0	0	0	0	1	0	0	-20.04	-1.46	20.07	0.75	0	0	0	0;
	43	132	0.011052	0.075503	0.01285	221.1	0	0	0	0	1	0	0	17.95	0.86	-17.92	-1.95	0	0	0	0;
	44	200	0.014813	0.101195	0.01722	221.1	0	0	0	0	1	0	0	-18.03	4.03	18.08	-5.51	0	0	0	0;
	46	45	0.000936	0.049195	0	160	0	0	1	0	1	0	0	-31.39	-0.49	31.4	0.95	0	0	0	0;
	55	45	0.002593	0.018527	0.03378	402.36	0	0	0	0	1	0	0	-23.94	-6.06	23.95	2.52	0	0	0	0;
	102	45	0.0029	0.020715	0.03777	402.36	0	0	0	0	1	0	0	18.42	-8.82	-18.41	4.83	0	0	0	0;
	45	187	0.003474	0.024821	0.04525	402.36	0	0	0	0	1	0	0	-36.94	-8.3	36.99	3.73	0	0	0	0;
	61	46	0.006971	0.048561	0.00794	221.1	0	0	0	0	1	0	0	-8.86	-4.81	8.87	4	0	0	0	0;
	122	46	0.010129	0.065419	0.01248	221.1	0	0	0	0	1	0	0	-16.15	4.14	16.18	-5.31	0	0	0	0;
	47	54	0.006678	0.045623	0.00776	221.1	0	0	0	0	1	0	0	12.62	1.78	-12.61	-2.54	0	0	0	0;
	47	66	0.007339	0.047401	0.00904	221.1	0	0	0	0	1	0	0	-14.17	-2.22	14.18	1.33	0	0	0	0;
	49	48	0.027149	0.532021	0	28.9	0	0	1	0	1	0	0	1.36	0.88	-1.36	-0.87	0	0	0	0;
	50	48	0.021719	0.404167	0	28.7	0	0	1	0	1	0	0	1.36	1.18	-1.36	-1.17	0	0	0	0;
	51	48	0.027149	0.612711	0	24.3	0	0	1	0	1	0	0	1.36	0.77	-1.36	-0.75	0	0	0	0;
	52	48	0.021719	0.379817	0	24.3	0	0	1	0	1	0	0	1.36	1.25	-1.36	-1.24	0	0	0	0;
	53	48	0.02121	0.576549	0	35.3	0	0	1	0	1	0	0	2.72	0.79	-2.72	-0.75	0	0	0	0;
	48	74	0.007959	0.054369	0.00925	221.1	0	0	0	0	1	0	0	33.56	5.65	-33.47	-6.05	0	0	0	0;
	54	66	0.007051	0.045544	0.00869	221.1	0	0	0	0	1	0	0	-27.36	-4.21	27.41	3.6	0	0	0	0;
	56	55	0.005152	0.124653	0	160	0	0	1	0	1	0	0	-6.6	-0.23	6.6	0.28	0	0	0	0;
	81	55	0.005467	0.039054	0.0712	402.36	0	0	0	0	1	0	0	-74.84	10.58	75.14	-16.14	0	0	0	0;
	55	102	0.001246	0.008902	0.01623	402.36	0	0	0	0	1	0	0	-92.52	6.42	92.62	-7.45	0	0	0	0;
	55	112	0.004166	0.029763	0.05426	402.36	0	0	0	0	1	0	0	6.91	7.22	-6.9	-12.99	0	0	0	0;
	55	128	0.003415	0.024395	0.04448	402.36	0	0	0	0	1	0	0	27.81	8.29	-27.78	-12.85	0	0	0	0;
	56	103	0.004282	0.02983	0.00488	221.1	0	0	0	0	1	0	0	5.29	-0.15	-5.29	-0.37	0	0	0	0;
	57	159	0.00752	0.051369	0.00874	221.1	0	0	0	0	1	0	0	10.74	1.08	-10.74	-1.95	0	0	0	0;
	95	58	0.009836	0.063526	0.01212	221.1	0	0	0	0	1	0	0	-0.73	16.45	0.75	-17.59	0	0	0	0;
	177	58	0.014049	0.095972	0.01633	221.1	0	0	0	0	1	0	0	10	-9.8	-9.98	8.23	0	0	0	0;
	59	119	0.011209	0.072397	0.01381	221.1	0	0	0	0	1	0	0	5.34	1.97	-5.33	-3.38	0	0	0	0;
	59	139	0.009665	0.062426	0.01191	221.1	0	0	0	0	1	0	0	-10.07	-3.32	10.08	2.15	0	0	0	0;
	60	97	0.012274	0.079279	0.01512	221.1	0	0	0	0	1	0	0	34.99	-2.53	-34.85	1.85	0	0	0	0;
	134	60	0.009007	0.062749	0.01026	221.1	0	0	0	0	1	0	0	38.92	-1.64	-38.79	1.45	0	0	0	0;
	61	103	0.006539	0.045556	0.00745	221.1	0	0	0	0	1	0	0	-11.69	-1.05	11.7	0.31	0	0	0	0;
	159	62	0.008634	0.058979	0.01003	221.1	0	0	0	0	1	0	0	17.56	-3.23	-17.53	2.35	0	0	0	0;
	160	62	0.007628	0.053144	0.00869	221.1	0	0	0	0	1	0	0	3.88	7.57	-3.87	-8.45	0	0	0	0;
	63	66	0.011949	0.083244	0.01361	221.1	0	0	0	0	1	0	0	-8.15	3.85	8.16	-5.26	0	0	0	0;
	63	184	0.017963	0.116023	0.02214	221.1	0	0	0	0	1	0	0	0.17	-6.13	-0.16	3.73	0	0	0	0;
	65	64	0.00128	0.10157	0	195.5	0	0	1	0	1	0	0	86.5	0.84	-86.41	6.18	0	0	0	0;
	67	66	0.020951	0.144786	0	30	0	0	1	0	1	0	0	1.41	-0.57	-1.41	0.57	0	0	0	0;
	68	66	0.00689	0.264997	0	73	0	0	1	0	1	0	0	8.38	-0.55	-8.38	0.72	0	0	0	0;
	69	66	0.00441	0.09499	0	70.5	0	0	1	0	1	0	0	8.38	-1.53	-8.38	1.59	0	0	0	0;
	70	66	0.00689	0.199449	0	70.5	0	0	1	0	1	0	0	8.38	-0.78	-8.38	0.91	0	0	0	0;
	71	66	0.003528	0.081544	0	68	0	0	1	0	1	0	0	8.38	-1.7	-8.38	1.76	0	0	0	0;
	72	66	0.003528	0.074599	0	68	0	0	1	0	1	0	0	8.38	-1.86	-8.38	1.91	0	0	0	0;
	73	66	0.00689	0.146423	0	65	0	0	1	0	1	0	0	8.38	-1.11	-8.38	1.2	0	0	0	0;
	66	158	0.004993	0.032251	0.00615	221.1	0	0	0	0	1	0	0	1.92	-8.34	-1.92	7.69	0	0	0	0;
	74	190	0.008894	0.06076	0.01034	221.1	0	0	0	0	1	0	0	14.71	0.7	-14.69	-1.67	0	0	0	0;
	76	75	0.038464	0.784328	0	24.3	0	0	1	0	1	0	0	1.2	1.41	-1.2	-1.38	0	0	0	0;
	77	75	0.08013	2.192105	0	7.4	0	0	1	0	1	0	0	0.72	0.5	-0.72	-0.49	0	0	0	0;
	78	75	0.008544	0.181406	0	65	0	0	1	0	1	0	0	0	0	0	0	0	0	0	0;
	79	75	0.01068	0.277774	0	62.1	0	0	1	0	1	0	0	0	0	0	0	0	0	0	0;
	108	75	0.010988	0.070969	0.01354	221.1	0	0	0	0	1	0	0	-12.61	-2.57	12.63	1.25	0	0	0	0;
	75	157	0.013487	0.087112	0.01662	221.1	0	0	0	0	1	0	0	-14.31	-0.4	14.34	-1.19	0	0	0	0;
	80	100	0.021463	0.149525	0.02444	221.1	0	0	0	0	1	0	0	6.64	-7.88	-6.62	5.29	0	0	0	0;
	80	143	0.020594	0.14347	0.02345	221.1	0	0	0	0	1	0	0	-8.11	7.46	8.14	-9.82	0	0	0	0;
	82	81	0.00097	0.042371	0	250	0	0	1	0	1	0	0	-36.8	-5.84	36.81	6.38	0	0	0	0;
	81	178	0.006598	0.047137	0.08594	402.36	0	0	0	0	1	0	0	38.03	-16.97	-37.93	8.37	0	0	0	0;
	82	195	0.003845	0.026265	0.00447	221.1	0	0	0	0	1	0	0	29.2	3.67	-29.17	-3.93	0	0	0	0;
	83	146	0.005382	0.036767	0.00626	221.1	0	0	0	0	1	0	0	-57.18	1.52	57.35	-1.06	0	0	0	0;
	83	186	0.00792	0.055174	0.00902	221.1	0	0	0	0	1	0	0	25.57	-1.88	-25.52	1.27	0	0	0	0;
	84	113	0.006652	0.04544	0.00773	221.1	0	0	0	0	1	0	0	-23.82	-1.82	23.86	1.27	0	0	0	0;
	85	120	0.007786	0.050291	0.00959	221.1	0	0	0	0	1	0	0	-22.53	2.4	22.57	-3.16	0	0	0	0;
	86	101	0.00512	0.033072	0.00631	221.1	0	0	0	0	1	0	0	-8.26	-2.26	8.27	1.64	0	0	0	0;
	142	86	0.003387	0.023141	0.00394	221.1	0	0	0	0	1	0	0	1.05	-1.31	-1.05	0.91	0	0	0	0;
	86	193	0.006606	0.042664	0.00814	221.1	0	0	0	0	1	0	0	-11.23	-3.85	11.24	3.07	0	0	0	0;
	88	87	0.000832	0.034189	0	350	0	0	1	0	1	0	0	-65.67	-2.16	65.71	3.53	0	0	0	0;
	149	87	0.001621	0.011579	0.02111	402.36	0	0	0	0	1	0	0	65.77	1.72	-65.71	-3.53	0	0	0	0;
	88	150	0.00557	0.035973	0.00686	221.1	0	0	0	0	1	0	0	-25.53	-4.64	25.57	4.13	0	0	0	0;
	176	88	0.003859	0.024922	0.00475	221.1	0	0	0	0	1	0	0	-29.08	-6.93	29.11	6.63	0	0	0	0;
	88	194	0.004258	0.029088	0.00495	221.1	0	0	0	0	1	0	0	12.76	-13.9	-12.74	13.46	0	0	0	0;
	90	89	0.0601	2.279922	0	8.6	0	0	1	0	1	0	0	0.96	0.13	-0.96	-0.11	0	0	0	0;
	91	89	0.024614	0.503424	0	32	0	0	1	0	1	0	0	1.5	0.59	-1.5	-0.58	0	0	0	0;
	92	89	0.019539	0.36204	0	35.3	0	0	1	0	1	0	0	0	0	0	0	0	0	0	0;
	89	95	0.008734	0.056409	0.01076	221.1	0	0	0	0	1	0	0	2.29	-16.5	-2.27	15.47	0	0	0	0;
	188	89	0.00805	0.051996	0.00992	221.1	0	0	0	0	1	0	0	62.97	1.54	-62.68	-0.71	0	0	0	0;
	94	93	0.01068	0.280602	0	62.1	0	0	1	0	1	0	0	5.4	-2.2	-5.4	2.29	0	0	0	0;
	93	191	0.022088	0.142662	0.02722	221.1	0	0	0	0	1	0	0	0.82	-1.11	-0.82	-1.87	0	0	0	0;
	122	96	0.01062	0.073986	0.01209	221.1	0	0	0	0	1	0	0	28.51	-5.54	-28.42	4.8	0	0	0	0;
	96	143	0.015858	0.102423	0.01954	221.1	0	0	0	0	1	0	0	35.1	-3.13	-34.92	2.19	0	0	0	0;
	96	188	0.010903	0.070421	0.01343	221.1	0	0	0	0	1	0	0	-9.63	-2.52	9.64	1.13	0	0	0	0;
	97	200	0.01318	0.085125	0.01624	221.1	0	0	0	0	1	0	0	27.52	-3.94	-27.43	2.85	0	0	0	0;
	99	98	0.000643	0.030516	0	250	0	0	1	0	1	0	0	-50.59	-12.68	50.61	13.47	0	0	0	0;
	98	123	0.0047	0.033574	0.06121	402.36	0	0	0	0	1	0	0	-50.61	-13.47	50.72	7.84	0	0	0	0;
	99	142	0.007605	0.052982	0.00866	221.1	0	0	0	0	1	0	0	38.42	9.21	-38.31	-9.31	0	0	0	0;
	100	174	0.010698	0.074531	0.01218	221.1	0	0	0	0	1	0	0	-20.65	12.42	20.71	-13.37	0	0	0	0;
	100	179	0.007093	0.049413	0.00808	221.1	0	0	0	0	1	0	0	-32.96	24.58	33.07	-24.71	0	0	0	0;
	100	184	0.012745	0.08879	0.01451	221.1	0	0	0	0	1	0	0	10.55	5.29	-10.53	-6.78	0	0	0	0;
	110	101	0.00196	0.012657	0.00241	221.1	0	0	0	0	1	0	0	-1.01	0.5	1.01	-0.75	0	0	0	0;
	101	117	0.005245	0.035833	0.0061	221.1	0	0	0	0	1	0	0	-37.43	-6.12	37.5	5.99	0	0	0	0;
	101	141	0.003144	0.020305	0.00387	221.1	0	0	0	0	1	0	0	3.02	-0.75	-3.02	0.35	0	0	0	0;
	103	102	0.001709	0.054578	0	250	0	0	1	0	1	0	0	-33.22	-1.33	33.24	1.9	0	0	0	0;
	104	102	0.0021	0.087749	0	130	0	0	1	0	1	0	0	67.6	3.1	-67.51	0.62	0	0	0	0;
	105	102	0.00097	0.059419	0	260	0	0	1	0	1	0	0	154.8	8.29	-154.58	4.91	0	0	0	0;
	102	128	0.0027	0.019292	0.03517	402.36	0	0	0	0	1	0	0	77.82	8.85	-77.66	-11.52	0	0	0	0;
	103	106	0.007749	0.053987	0.00883	221.1	0	0	0	0	1	0	0	26.82	1.39	-26.76	-1.97	0	0	0	0;
	130	106	0.006991	0.047761	0.00813	221.1	0	0	0	0	1	0	0	-24.67	-1.98	24.71	1.39	0	0	0	0;
	107	113	0.006748	0.046101	0.00784	221.1	0	0	0	0	1	0	0	-26.65	-7.5	26.7	7.03	0	0	0	0;
	107	129	0.005168	0.035307	0.00601	221.1	0	0	0	0	1	0	0	-32.36	-5.43	32.41	5.17	0	0	0	0;
	192	107	0.003939	0.025441	0.00485	221.1	0	0	0	0	1	0	0	-6.45	1.56	6.45	-2.05	0	0	0	0;
	108	198	0.024792	0.160126	0.03055	221.1	0	0	0	0	1	0	0	3.19	-0.12	-3.19	-3.07	0	0	0	0;
	186	109	0.008774	0.059942	0.0102	221.1	0	0	0	0	1	0	0	37.01	-0.79	-36.9	0.49	0	0	0	0;
	110	193	0.003444	0.022243	0.00424	221.1	0	0	0	0	1	0	0	-9.84	-3.59	9.85	3.18	0	0	0	0;
	163	111	0.005281	0.034111	0.00651	221.1	0	0	0	0	1	0	0	8.16	1.04	-8.16	-1.72	0	0	0	0;
	111	175	0.00795	0.055386	0.00905	221.1	0	0	0	0	1	0	0	-0.66	-0.79	0.66	-0.19	0	0	0	0;
	113	112	0.002077	0.058615	0	350	0	0	1	0	1	0	0	-90.48	-16.17	90.65	20.92	0	0	0	0;
	114	112	0.06	0.434013	0	20	0	0	1	0	1	0	0	1.4	0.36	-1.4	-0.35	0	0	0	0;
	115	112	0.00128	0.062771	0	200	0	0	1	0	1	0	0	133.5	12.6	-133.29	-2.16	0	0	0	0;
	128	112	0.001295	0.009255	0.01687	402.36	0	0	0	0	1	0	0	-50.9	3.83	50.94	-5.41	0	0	0	0;
	113	192	0.005418	0.034995	0.00668	221.1	0	0	0	0	1	0	0	39.93	7.88	-39.84	-8.02	0	0	0	0;
	117	116	0.000517	0.034943	0	300	0	0	1	0	1	0	0	-70.98	-17.52	71.01	19.32	0	0	0	0;
	133	116	0.00389	0.027793	0.05067	402.36	0	0	0	0	1	0	0	71.2	15.35	-71.01	-19.32	0	0	0	0;
	117	132	0.011912	0.082984	0.01357	221.1	0	0	0	0	1	0	0	9.05	4.42	-9.04	-5.73	0	0	0	0;
	117	162	0.01617	0.104442	0.01993	221.1	0	0	0	0	1	0	0	-9.65	-2.59	9.67	0.61	0	0	0	0;
	131	118	0.00718	0.046377	0.00885	221.1	0	0	0	0	1	0	0	-29.57	-9.14	29.64	8.65	0	0	0	0;
	118	134	0.011598	0.0808	0.01321	221.1	0	0	0	0	1	0	0	-35.76	-7.08	35.91	6.71	0	0	0	0;
	118	198	0.009487	0.064809	0.01103	221.1	0	0	0	0	1	0	0	2.18	-2.69	-2.18	1.54	0	0	0	0;
	122	121	0.000786	0.063023	0	200	0	0	1	0	1	0	0	-27.79	-3	27.8	3.45	0	0	0	0;
	121	178	0.008903	0.063604	0.11596	402.36	0	0	0	0	1	0	0	68.42	-14.64	-68.03	4.85	0	0	0	0;
	187	121	0.001063	0.007593	0.01384	402.36	0	0	0	0	1	0	0	233.7	-35.12	-233.15	37.53	0	0	0	0;
	124	123	0.000329	0.017481	0	400	0	0	1	0	1	0	0	-160.25	-39.24	160.34	43.78	0	0	0	0;
	125	123	0.00448	0.104562	0	170	0	0	1	0	1	0	0	39.02	7.24	-38.95	-5.72	0	0	0	0;
	126	123	0.00148	0.066043	0	170	0	0	1	0	1	0	0	39.02	12.55	-39	-11.52	0	0	0	0;
	127	123	0.001	0.031691	0	170	0	0	1	0	1	0	0	39.02	25.99	-39	-25.35	0	0	0	0;
	123	133	0.001459	0.010423	0.019	402.36	0	0	0	0	1	0	0	-76.38	-6.45	76.46	4.99	0	0	0	0;
	156	123	0.001117	0.007981	0.01455	402.36	0	0	0	0	1	0	0	17.73	1.06	-17.72	-2.58	0	0	0	0;
	124	193	0.006577	0.04582	0.00749	221.1	0	0	0	0	1	0	0	43.97	10.96	-43.84	-10.84	0	0	0	0;
	129	128	0.000753	0.044453	0	250	0	0	1	0	1	0	0	-109.66	-27.19	109.75	32.64	0	0	0	0;
	128	133	0.009554	0.068257	0.12444	402.36	0	0	0	0	1	0	0	46.6	-12.1	-46.4	0.21	0	0	0	0;
	130	144	0.022678	0.157988	0.02583	221.1	0	0	0	0	1	0	0	20.27	0.72	-20.18	-2.83	0	0	0	0;
	134	133	0.0002	0.013328	0	400	0	0	1	0	1	0	0	-119.54	-11.73	119.56	13.54	0	0	0	0;
	135	133	0.00043	0.033512	0	580	0	0	1	0	1	0	0	133.92	21.46	-133.85	-15.76	0	0	0	0;
	136	133	0.00043	0.027478	0	580	0	0	1	0	1	0	0	133.92	25.06	-133.85	-20.34	0	0	0	0;
	156	133	0.001958	0.013985	0.0255	402.36	0	0	0	0	1	0	0	-46.82	-4.44	46.87	2.01	0	0	0	0;
	134	140	0.010445	0.071357	0.01214	221.1	0	0	0	0	1	0	0	31.1	7.33	-31	-7.92	0	0	0	0;
	134	186	0.014463	0.093412	0.01782	221.1	0	0	0	0	1	0	0	13.61	-0.66	-13.59	-1.07	0	0	0	0;
	138	139	0.026477	0.184455	0.03015	221.1	0	0	0	0	1	0	0	16.99	1.44	-16.92	-4.1	0	0	0	0;
	138	195	0.008728	0.05637	0.01075	221.1	0	0	0	0	1	0	0	-19.09	-2.03	19.12	1.08	0	0	0	0;
	141	148	0.01019	0.065817	0.01256	221.1	0	0	0	0	1	0	0	18.94	4.44	-18.9	-5.48	0	0	0	0;
	141	193	0.002896	0.018702	0.00357	221.1	0	0	0	0	1	0	0	-14.3	-4.01	14.31	3.68	0	0	0	0;
	162	144	0.006962	0.048504	0.00793	221.1	0	0	0	0	1	0	0	-11.12	-1.03	11.12	0.25	0	0	0	0;
	145	176	0.008799	0.060111	0.01023	221.1	0	0	0	0	1	0	0	-10.06	-2.55	10.07	1.52	0	0	0	0;
	185	145	0.010839	0.075509	0.01234	221.1	0	0	0	0	1	0	0	7.49	1.18	-7.49	-2.45	0	0	0	0;
	147	146	0.0025	0.10181	0	130.6	0	0	1	0	1	0	0	92.4	8.79	-92.2	-0.69	0	0	0	0;
	146	177	0.011064	0.07708	0.0126	221.1	0	0	0	0	1	0	0	34.85	1.74	-34.72	-2.2	0	0	0	0;
	150	149	0.000412	0.020251	0	400	0	0	1	0	1	0	0	-104.3	3.7	104.34	-1.66	0	0	0	0;
	151	149	0.02267	0.625521	0	20	0	0	1	0	1	0	0	1.62	0.02	-1.62	-0.01	0	0	0	0;
	152	149	0.00249	0.141687	0	100	0	0	1	0	1	0	0	23.17	0.27	-23.16	0.43	0	0	0	0;
	153	149	0.00549	0.184603	0	100	0	0	1	0	1	0	0	23.17	0.02	-23.14	0.9	0	0	0	0;
	154	149	0.00249	0.10294	0	100	0	0	1	0	1	0	0	23.17	0.14	-23.16	0.37	0	0	0	0;
	155	149	0.00249	0.099835	0	100	0	0	1	0	1	0	0	23.17	0.13	-23.16	0.36	0	0	0	0;
	185	150	0.013458	0.091934	0.01564	221.1	0	0	0	0	1	0	0	-18.28	-4.25	18.32	2.87	0	0	0	0;
	194	150	0.003138	0.021435	0.00365	221.1	0	0	0	0	1	0	0	-60.3	11.04	60.41	-10.69	0	0	0	0;
	157	156	0.000592	0.045654	0	300	0	0	1	0	1	0	0	-29.09	-3.01	29.1	3.38	0	0	0	0;
	161	160	0.00139	0.080288	0	180.2	0	0	1	0	1	0	0	0	0	0	0	0	0	0	0;
	160	181	0.004296	0.029345	0.00499	221.1	0	0	0	0	1	0	0	-3.88	-7.57	3.88	7.06	0	0	0	0;
	164	163	0.008207	0.11301	0	58.1	0	0	1	0	1	0	0	0	0	0	0	0	0	0	0;
	165	163	0.0074	0.301657	0	65	0	0	1	0	1	0	0	0	0	0	0	0	0	0	0;
	166	163	0.016368	0.382075	0	42	0	0	1	0	1	0	0	0	0	0	0	0	0	0	0;
	167	163	0.010476	0.196499	0	42	0	0	1	0	1	0	0	2.82	-1.04	-2.82	1.06	0	0	0	0;
	168	163	0.018	0.490983	0	40	0	0	1	0	1	0	0	0	0	0	0	0	0	0	0;
	169	163	0.016368	0.396417	0	40	0	0	1	0	1	0	0	0	0	0	0	0	0	0	0;
	170	163	0.016368	0.374902	0	35.6	0	0	1	0	1	0	0	2.82	-0.99	-2.82	1.02	0	0	0	0;
	163	179	0.00579	0.039557	0.00673	221.1	0	0	0	0	1	0	0	-49.1	-0.82	49.23	0.96	0	0	0	0;
	171	190	0.009866	0.0674	0.01147	221.1	0	0	0	0	1	0	0	2.1	1.91	-2.1	-3.12	0	0	0	0;
	195	171	0.011644	0.081116	0.01326	221.1	0	0	0	0	1	0	0	10.05	2.85	-10.04	-4.17	0	0	0	0;
	180	172	0.015296	0.106558	0.01742	221.1	0	0	0	0	1	0	0	-6.7	0.57	6.71	-2.43	0	0	0	0;
	199	172	0.024005	0.155042	0.02958	221.1	0	0	0	0	1	0	0	12.12	-3.91	-12.09	0.9	0	0	0	0;
	173	174	0.015373	0.099293	0.01894	221.1	0	0	0	0	1	0	0	-16.68	-3.26	16.72	1.44	0	0	0	0;
	173	175	0.008572	0.055363	0.01056	221.1	0	0	0	0	1	0	0	7.97	0.77	-7.97	-1.89	0	0	0	0;
	174	188	0.017952	0.12264	0.02087	221.1	0	0	0	0	1	0	0	-40.2	11.14	40.49	-11.45	0	0	0	0;
	179	178	0.000495	0.036157	0	250	0	0	1	0	1	0	0	-105.91	17.02	105.96	-13.22	0	0	0	0;
	180	191	0.026393	0.183866	0.03006	221.1	0	0	0	0	1	0	0	6.42	-3.02	-6.41	-0.19	0	0	0	0;
	180	199	0.012185	0.078698	0.01501	221.1	0	0	0	0	1	0	0	-32.83	6.45	32.96	-7.27	0	0	0	0;
	182	181	0.01099	0.297746	0	60.3	0	0	1	0	1	0	0	5.25	2.15	-5.25	-2.06	0	0	0	0;
	183	181	0.004627	0.114254	0	65	0	0	1	0	1	0	0	7.98	5.73	-7.98	-5.62	0	0	0	0;
	181	194	0.004395	0.028384	0.00542	221.1	0	0	0	0	1	0	0	-35.4	-19.04	35.47	18.88	0	0	0	0;
	188	187	0.001394	0.044762	0	400	0	0	1	0	1	0	0	-113.1	8.78	113.27	-3.48	0	0	0	0;
	189	187	0.0003	0.007815	0	740	0	0	1	0	1	0	0	384.37	-24.15	-383.96	34.87	0	0	0	0;
	196	195	0.00285	0.060038	0	87.7	0	0	1	0	1	0	0	0	0	0	0	0	0	0	0;
	197	195	0.00285	0.191484	0	87.7	0	0	1	0	1	0	0	0	0	0	0	0	0	0	0;
];


%%-----  OPF Data  -----%%
%% generator cost data
%	1	startup	shutdown	n	x1	y1	...	xn	yn
%	2	startup	shutdown	n	c(n-1)	...	c0
mpc.gencost = [
	2	0	0	3	0.002	19	236.12;
	2	0	0	3	0.002	19	236.12;
	2	0	0	3	0.002	19	236.12;
	2	0	0	3	0.002	19	236.12;
	2	0	0	3	0.002	19	236.24;
	2	0	0	3	0	0	0;
	2	0	0	3	0.002	19	236.13;
	2	0	0	3	0.002	19	236.74;
	2	0	0	3	0.002	19	236.74;
	2	0	0	3	0.002	19	236.74;
	2	0	0	3	0.002	19	236.74;
	2	0	0	3	0.002	19	236.74;
	2	0	0	3	0.002	19	236.74;
	2	0	0	3	0.002	23.157	606;
	2	0	0	3	0.002	23.146	603.6;
	2	0	0	3	0.002	23.252	627;
	2	0	0	3	0.002	23.252	627;
	2	0	0	3	0.002	23.152	604.8;
	2	0	0	3	0.002	23.164	607.5;
	2	0	0	3	0.002	23.173	609.45;
	2	0	0	3	0.002	19	236.48;
	2	0	0	3	0	0	0;
	2	0	0	3	0	0	0;
	2	0	0	3	0	0	0;
	2	0	0	3	0	0	0;
	2	0	0	3	0.002	19	610.14;
	2	0	0	3	0.002	19	610.14;
	2	0	0	3	0.002	19	610.14;
	2	0	0	3	0.002	19	1261.33;
	2	0	0	3	0.002	19	1261.33;
	2	0	0	3	0	0	0;
	2	0	0	3	0.002	19	236.14;
	2	0	0	3	0.002	19	253.01;
	2	0	0	3	0.002	19	253.01;
	2	0	0	3	0.002	19	253.01;
	2	0	0	3	0.002	19	253.01;
	2	0	0	3	0.002	24.07	807.9;
	2	0	0	3	0.002	23.211	618;
	2	0	0	3	0.002	23.306	639;
	2	0	0	3	0.002	23.194	614.1;
	2	0	0	3	0.002	23.194	614.1;
	2	0	0	3	0.002	23.194	614.1;
	2	0	0	3	0.002	23.194	614.1;
	2	0	0	3	0.002	23.194	614.1;
	2	0	0	3	0.002	19	236.47;
	2	0	0	3	0.002	19	236.71;
	2	0	0	3	0	6.71	1272.13;
	2	0	0	3	0.002	23.588	701.25;
	2	0	0	3	0.002	23.588	701.25;
];


%% generator unit type (see GENTYPES)

mpc.gentype = {
	'ST';
	'ST';
	'ST';
	'ST';
	'ST';
	'W2';
	'ST';
	'ST';
	'ST';
	'ST';
	'ST';
	'ST';
	'ST';
	'GT';
	'GT';
	'GT';
	'GT';
	'GT';
	'GT';
	'GT';
	'ST';
	'W2';
	'W2';
	'W2';
	'W2';
	'ST';
	'ST';
	'ST';
	'ST';
	'ST';
	'W2';
	'ST';
	'ST';
	'ST';
	'ST';
	'ST';
	'GT';
	'GT';
	'GT';
	'GT';
	'GT';
	'GT';
	'GT';
	'GT';
	'ST';
	'ST';
	'NB';
	'GT';
	'GT';
};


%% generator fuel type (see GENFUELS)

mpc.genfuel = {
	'coal';
	'coal';
	'coal';
	'coal';
	'coal';
	'wind';
	'coal';
	'coal';
	'coal';
	'coal';
	'coal';
	'coal';
	'coal';
	'ng';
	'ng';
	'ng';
	'ng';
	'ng';
	'ng';
	'ng';
	'coal';
	'wind';
	'wind';
	'wind';
	'wind';
	'coal';
	'coal';
	'coal';
	'coal';
	'coal';
	'wind';
	'coal';
	'coal';
	'coal';
	'coal';
	'coal';
	'ng';
	'ng';
	'ng';
	'ng';
	'ng';
	'ng';
	'ng';
	'ng';
	'coal';
	'coal';
	'nuclear';
	'ng';
	'ng';
};


%% bus names

mpc.bus_name = {
	'CREVE COEUR 0';
	'CREVE COEUR 1';
	'ILLIOPOLIS 0';
	'ILLIOPOLIS 1';
	'PAXTON 2 0';
	'PAXTON 2 1';
	'PEORIA 9 0';
	'PEORIA 9 1';
	'PEORIA 8 0';
	'PEORIA 8 1';
	'LOVINGTON 0';
	'LOVINGTON 1';
	'LOVINGTON 2';
	'DECATUR 3 0';
	'DECATUR 3 1';
	'DECATUR 3 2';
	'MASON CITY 0';
	'MASON CITY 1';
	'MASON CITY 2';
	'MASON CITY 3';
	'MASON CITY 4';
	'BETHANY 0';
	'BETHANY 1';
	'BETHANY 2';
	'RANKIN 0';
	'RANKIN 1';
	'WINDSOR 0';
	'WINDSOR 1';
	'PEKIN 2 0';
	'PEKIN 2 1';
	'HEYWORTH 0';
	'HEYWORTH 1';
	'HEYWORTH 2';
	'DECATUR 2 0';
	'DECATUR 2 1';
	'LINCOLN 0';
	'LINCOLN 1';
	'LINCOLN 2';
	'SHERMAN 0';
	'SHERMAN 1';
	'URBANA 2 0';
	'SPRINGFIELD 8 0';
	'CARLOCK 0';
	'PLEASANT PLAINS 0';
	'LE ROY 0';
	'LE ROY 1';
	'DECATUR 1 0';
	'RANTOUL 2 0';
	'RANTOUL 2 1';
	'RANTOUL 2 2';
	'RANTOUL 2 3';
	'RANTOUL 2 4';
	'RANTOUL 2 5';
	'MACON 0';
	'ELLSWORTH 2 0';
	'ELLSWORTH 2 1';
	'MOUNT PULASKI 0';
	'WAPELLA 0';
	'ROANOKE 0';
	'GREEN VALLEY 0';
	'BLOOMINGTON 3 0';
	'SPRINGFIELD 7 0';
	'BEMENT 0';
	'PAXTON 1 0';
	'PAXTON 1 1';
	'MOUNT ZION 0';
	'MOUNT ZION 1';
	'MOUNT ZION 2';
	'MOUNT ZION 3';
	'MOUNT ZION 4';
	'MOUNT ZION 5';
	'MOUNT ZION 6';
	'MOUNT ZION 7';
	'RANTOUL 1 0';
	'BRIMFIELD 0';
	'BRIMFIELD 1';
	'BRIMFIELD 2';
	'BRIMFIELD 3';
	'BRIMFIELD 4';
	'WELDON 0';
	'GIBSON CITY 2 0';
	'GIBSON CITY 2 1';
	'MINIER 0';
	'HUDSON 0';
	'ATHENS 0';
	'PEORIA HEIGHTS 0';
	'SPRINGFIELD 6 0';
	'SPRINGFIELD 6 1';
	'CLINTON 3 0';
	'CLINTON 3 1';
	'CLINTON 3 2';
	'CLINTON 3 3';
	'TUSCOLA 2 0';
	'TUSCOLA 2 1';
	'KENNEY 0';
	'MANSFIELD 0';
	'MANITO 0';
	'DUNLAP 0';
	'DUNLAP 1';
	'CHAMPAIGN 3 0';
	'PEORIA 7 0';
	'ELLSWORTH 1 0';
	'ELLSWORTH 1 1';
	'ELLSWORTH 1 2';
	'ELLSWORTH 1 3';
	'TOWANDA 0';
	'BLOOMINGTON 2 0';
	'PRINCEVILLE 0';
	'DELAVAN 0';
	'PEORIA 6 0';
	'SAVOY 0';
	'NORMAL 2 0';
	'NORMAL 2 1';
	'NORMAL 2 2';
	'NORMAL 2 3';
	'EAST PEORIA 0';
	'EAST PEORIA 1';
	'HANNA CITY 0';
	'METAMORA 0';
	'GREENVIEW 0';
	'CLINTON 2 0';
	'CLINTON 2 1';
	'BARTONVILLE 0';
	'BARTONVILLE 1';
	'BARTONVILLE 2';
	'BARTONVILLE 3';
	'BARTONVILLE 4';
	'NORMAL 1 0';
	'NORMAL 1 1';
	'LEXINGTON 0';
	'PEORIA 5 0';
	'MORTON 0';
	'PEKIN 1 0';
	'PEKIN 1 1';
	'PEKIN 1 2';
	'PEKIN 1 3';
	'NIANTIC 0';
	'COLFAX 0';
	'EL PASO 0';
	'TREMONT 0';
	'PEORIA 4 0';
	'PEORIA 3 0';
	'CHAMPAIGN 2 0';
	'EUREKA 0';
	'CHATHAM 0';
	'HOPEDALE 2 0';
	'HOPEDALE 2 1';
	'WASHINGTON 0';
	'SPRINGFIELD 5 0';
	'SPRINGFIELD 5 1';
	'SPRINGFIELD 5 2';
	'SPRINGFIELD 5 3';
	'SPRINGFIELD 5 4';
	'SPRINGFIELD 5 5';
	'SPRINGFIELD 5 6';
	'PEORIA 2 0';
	'PEORIA 2 1';
	'MT ZION 0';
	'BUFFALO 0';
	'SPRINGFIELD 4 0';
	'SPRINGFIELD 4 1';
	'CONGERVILLE 0';
	'CHAMPAIGN 1 0';
	'CHAMPAIGN 1 1';
	'CHAMPAIGN 1 2';
	'CHAMPAIGN 1 3';
	'CHAMPAIGN 1 4';
	'CHAMPAIGN 1 5';
	'CHAMPAIGN 1 6';
	'CHAMPAIGN 1 7';
	'FISHER 0';
	'HOMER 0';
	'TUSCOLA 1 0';
	'WHITE HEATH 0';
	'TOLONO 0';
	'SPRINGFIELD 3 0';
	'MACKINAW 0';
	'URBANA 1 0';
	'URBANA 1 1';
	'SAINT JOSEPH 0';
	'SPRINGFIELD 2 0';
	'SPRINGFIELD 2 1';
	'SPRINGFIELD 2 2';
	'MONTICELLO 0';
	'AUBURN 0';
	'HOPEDALE 1 0';
	'CLINTON 1 0';
	'CLINTON 1 1';
	'CLINTON 1 2';
	'MAHOMET 0';
	'VILLA GROVE 0';
	'BLOOMINGTON 1 0';
	'PEORIA 1 0';
	'SPRINGFIELD 1 0';
	'GIBSON CITY 1 0';
	'GIBSON CITY 1 1';
	'GIBSON CITY 1 2';
	'MAPLETON 0';
	'GIFFORD 0';
	'PETERSBURG 0';
};

